/*--------------------------------*- C++ -*----------------------------------*\
| =========                 |                                                 |
| \\      /  F ield         | OpenFOAM: The Open Source CFD Toolbox           |
|  \\    /   O peration     | Version:  4.x                                   |
|   \\  /    A nd           | Web:      www.OpenFOAM.org                      |
|    \\/     M anipulation  |                                                 |
\*---------------------------------------------------------------------------*/
FoamFile
{
    version     2.0;
    format      ascii;
    class       dictionary;
    object      transportProperties;
}
// * * * * * * * * * * * * * * * * * * * * * * * * * * * * * * * * * * * * * //

nu            	[ 0 2 -1 0 0 0 0 ] 0.000001;
Cmu			Cmu 	 [ 0 0 0 0 0 0 0 ] 0.09;
c1			c1 	 [ 0 0 0 0 0 0 0 ] 1.44;
c2			c2 	 [ 0 0 0 0 0 0 0 ] 1.92;
sigmaEps		sigmaEps [ 0 0 0 0 0 0 0 ] 1.3;
sigmaK			sigmaK 	 [ 0 0 0 0 0 0 0 ] 1.0;
// ************************************************************************* //
