/*--------------------------------*- C++ -*----------------------------------*\
| =========                 |                                                 |
| \\      /  F ield         | OpenFOAM: The Open Source CFD Toolbox           |
|  \\    /   O peration     | Version:  5                                     |
|   \\  /    A nd           | Web:      www.OpenFOAM.org                      |
|    \\/     M anipulation  |                                                 |
\*---------------------------------------------------------------------------*/
FoamFile
{
    version     2.0;
    format      ascii;
    class       volScalarField;
    location    "0";
    object      nut;
}
// * * * * * * * * * * * * * * * * * * * * * * * * * * * * * * * * * * * * * //

dimensions      [0 2 -1 0 0 0 0];

internalField   uniform 0;

boundaryField
{
    velocity-inlet-5
    {
        type            calculated;
        value           uniform 0;
    }
    velocity-inlet-6
    {
        type            calculated;
        value           uniform 0;
    }

    pressure-outlet-7 
    {
        type            calculated;
        value           uniform 0;
    }


    wall-4
    {
        type            calculated;
        value           uniform 0;
    }
    
    wall-8
    {
        type            calculated;
        value           uniform 0;
    }

    frontAndBackPlanes
    {
        type            empty;
    }
}


// ************************************************************************* //
