/*--------------------------------*- C++ -*----------------------------------*\
| =========                 |                                                 |
| \\      /  F ield         | OpenFOAM: The Open Source CFD Toolbox           |
|  \\    /   O peration     | Version:  4.x                                   |
|   \\  /    A nd           | Web:      www.OpenFOAM.org                      |
|    \\/     M anipulation  |                                                 |
\*---------------------------------------------------------------------------*/
FoamFile
{
    version     2.0;
    format      ascii;
    class       dictionary;
    object      fvSchemes;
}
// * * * * * * * * * * * * * * * * * * * * * * * * * * * * * * * * * * * * * //

ddtSchemes
{
    default          CrankNicolson 0.9;
}

gradSchemes
{
    default         cellMDLimited Gauss linear 0.5;
   
}

divSchemes
{
    default         none;
    div(phi,U)      bounded Gauss vanLeer grad(U);
    div(phi,k)      bounded Gauss vanLeer;
    div(phi,epsilon) bounded Gauss vanLeer;
}

laplacianSchemes
{
    default	Gauss linear limited 1;
}

interpolationSchemes
{
    default         linear;
}

snGradSchemes
{
    default         limited 1;
}

// ************************************************************************* //
