/*--------------------------------*- C++ -*----------------------------------*\
| =========                 |                                                 |
| \\      /  F ield         | OpenFOAM: The Open Source CFD Toolbox           |
|  \\    /   O peration     | Version:  4.x                                   |
|   \\  /    A nd           | Web:      www.OpenFOAM.org                      |
|    \\/     M anipulation  |                                                 |
\*---------------------------------------------------------------------------*/
FoamFile
{
    version     2.0;
    format      ascii;
    class       dictionary;
    object      fvSolution;
}
// * * * * * * * * * * * * * * * * * * * * * * * * * * * * * * * * * * * * * //

solvers
{
    p
    {
        solver           GAMG;
        tolerance        1e-7;
        relTol           0.01;
        smoother         DICGaussSeidel;
    }

    pFinal
    {
        $p;
        relTol          0;
    }

    U
    {
        solver          PBiCG;
        smoother        symGaussSeidel;
        preconditioner	DILU;
        tolerance       1e-05;
        relTol          0.1;
    }

    UFinal
    {
        $U;
        relTol          0;
    }
//////////

    k
    {
        solver          PBiCG;
        smoother        symGaussSeidel;
        preconditioner	DILU;
        tolerance       1e-05;
        relTol          0.1;
    }

    epsilon
    {
        solver          PBiCG;
        smoother        symGaussSeidel;
        preconditioner	DILU;
        tolerance       1e-05;
        relTol          0.1;
    }

    kFinal
    {
        $U;
        relTol          0;
    }
    
    epsilonFinal
    {
        $U;
        relTol          0;
    }

////////////////////
}

PISO
{
    nCorrectors     3;
    nOuterCorrectors    3;
    nNonOrthogonalCorrectors 3;
}

///////////
relaxationFactors
{
    fields
    {
        p      0.3;
        pFinal   1;
    }
    equations
    {
        "U|k|epsilon"     0.7;
        "(U|k|epsilon)Final"   1;
    }
}
//////
// ************************************************************************* //
